Circuit: *** SPICE deck for cell NORgate{sch} from library NORgate

Ignoring BSIM parameter XL
Ignoring BSIM parameter XW
Ignoring BSIM parameter XL
Ignoring BSIM parameter XW
Warning: Pd = 0 is less than W.
Warning: Ps = 0 is less than W.
Warning: Pd = 0 is less than W.
Warning: Ps = 0 is less than W.
Direct Newton iteration for .op point succeeded.

tf=1.88038e-007 FROM 1.19618e-008 TO 2e-007
tr=6.51764e-008 FROM 1.34824e-007 TO 2e-007


Date: Thu Jul 07 23:19:08 2022
Total elapsed time: 0.220 seconds.

tnom = 27
temp = 27
method = modified trap
totiter = 2594
traniter = 2586
tranpoints = 1074
accept = 1074
rejected = 0
matrix size = 8
fillins = 0
solver = Normal
Matrix Compiler1: 282 bytes object code size  0.1/0.1/[0.1]
Matrix Compiler2: 682 bytes object code size  0.1/0.1/[0.1]

